Version 4
SHEET 1 1208 680
WIRE -1072 80 -1248 80
WIRE -768 80 -976 80
WIRE -688 80 -768 80
WIRE -544 80 -608 80
WIRE -384 80 -544 80
WIRE -320 80 -384 80
WIRE -1024 192 -1024 144
WIRE -992 192 -1024 192
WIRE -1248 224 -1248 80
WIRE -992 224 -992 192
WIRE -768 224 -768 80
WIRE -544 224 -544 80
WIRE -384 224 -384 80
WIRE -1248 448 -1248 304
WIRE -992 448 -992 304
WIRE -992 448 -1248 448
WIRE -768 448 -768 288
WIRE -768 448 -992 448
WIRE -544 448 -544 288
WIRE -544 448 -768 448
WIRE -384 448 -384 304
WIRE -384 448 -544 448
WIRE -1248 480 -1248 448
FLAG -1248 480 0
FLAG -320 80 Vo
IOPIN -320 80 Out
SYMBOL voltage -1248 208 R0
WINDOW 0 37 41 Left 2
WINDOW 3 41 71 Left 2
SYMATTR InstName Vin
SYMATTR Value {Vdc}
SYMBOL voltage -992 208 R0
WINDOW 0 45 61 Left 2
WINDOW 3 -96 134 Left 2
WINDOW 123 0 0 Left 2
WINDOW 39 0 0 Left 2
SYMATTR InstName Vsw
SYMATTR Value PULSE(0 5 0 0 0 {D2*T} {T})
SYMBOL ind -704 96 R270
WINDOW 0 62 53 VTop 2
WINDOW 3 60 53 VBottom 2
SYMATTR InstName L1
SYMATTR Value 18m
SYMATTR SpiceLine Rser=0
SYMBOL diode -752 288 R180
WINDOW 0 -70 40 Left 2
WINDOW 3 -95 13 Left 2
SYMATTR InstName D1
SYMATTR Value 1N4148
SYMBOL cap -560 224 R0
WINDOW 0 45 23 Left 2
WINDOW 3 37 48 Left 2
SYMATTR InstName C1
SYMATTR Value 1µ
SYMBOL res -400 208 R0
WINDOW 0 51 41 Left 2
WINDOW 3 46 68 Left 2
SYMATTR InstName Rload
SYMATTR Value 100
SYMBOL ZVP3306A -1024 112 R0
SYMATTR InstName U1
TEXT -1176 480 Left 2 !.tran 0 3m 0 1u
TEXT -1176 504 Left 2 !.param f={25k} T={1/f} Vdc=5.00 D1=.2 D2=.5 D3=.8
