Version 4
SHEET 1 1208 680
WIRE -1408 16 -1488 16
WIRE -1360 16 -1408 16
WIRE -1072 16 -1264 16
WIRE -1008 16 -1072 16
WIRE -880 16 -928 16
WIRE -752 16 -720 0
WIRE -752 16 -880 16
WIRE -1312 80 -1312 48
WIRE -1408 96 -1408 16
WIRE -1248 96 -1408 96
WIRE -1072 96 -1072 16
WIRE -1072 96 -1152 96
WIRE -880 96 -880 16
WIRE -752 96 -752 16
WIRE -1488 112 -1488 16
WIRE -1312 160 -1312 80
WIRE -1200 160 -1312 160
WIRE -1312 176 -1312 160
WIRE -1488 272 -1488 192
WIRE -1312 272 -1312 256
WIRE -1312 272 -1488 272
WIRE -1072 272 -1072 160
WIRE -1072 272 -1312 272
WIRE -880 272 -880 160
WIRE -880 272 -1072 272
WIRE -752 272 -752 176
WIRE -752 272 -880 272
WIRE -1488 288 -1488 272
FLAG -1488 288 0
FLAG -720 0 Vo
IOPIN -720 0 Out
SYMBOL voltage -1488 96 R0
WINDOW 0 37 41 Left 2
WINDOW 3 41 71 Left 2
SYMATTR InstName Vin
SYMATTR Value {Vdc}
SYMBOL voltage -1312 160 R0
WINDOW 0 45 61 Left 2
WINDOW 3 -150 132 Left 2
WINDOW 123 0 0 Left 2
WINDOW 39 0 0 Left 2
SYMATTR InstName Vsw
SYMATTR Value PULSE(0 5 0 0 0 {0.3*T} {T})
SYMBOL ind -1024 32 R270
WINDOW 0 62 53 VTop 2
WINDOW 3 60 53 VBottom 2
SYMATTR InstName L1
SYMATTR Value 18m
SYMATTR SpiceLine Rser=0
SYMBOL diode -1056 160 R180
WINDOW 0 -70 40 Left 2
WINDOW 3 -95 13 Left 2
SYMATTR InstName D1
SYMATTR Value 1N4148
SYMBOL cap -896 96 R0
WINDOW 0 45 23 Left 2
WINDOW 3 37 48 Left 2
SYMATTR InstName C1
SYMATTR Value 10p
SYMBOL res -768 80 R0
WINDOW 0 51 41 Left 2
WINDOW 3 46 68 Left 2
SYMATTR InstName Rload
SYMATTR Value 100
SYMBOL ZVP3306A -1312 48 R0
SYMATTR InstName U1
SYMBOL ZVN3306A -1200 96 R0
WINDOW 3 1 -7 Bottom 2
SYMATTR InstName U2
TEXT -1464 320 Left 2 !.tran 0 3m 2.75m 1u uic
TEXT -1464 344 Left 2 !.param f={25k} T={1/f} Vdc=5.00 D1=.2 D2=.5 D3=.8
