Version 4
SHEET 1 1208 680
WIRE -592 -32 -704 -32
WIRE -1360 16 -1488 16
WIRE -1184 16 -1264 16
WIRE -1120 16 -1184 16
WIRE -992 16 -1040 16
WIRE -864 16 -992 16
WIRE -768 16 -864 16
WIRE -1312 64 -1312 48
WIRE -592 64 -592 48
WIRE -1184 96 -1184 16
WIRE -992 96 -992 16
WIRE -864 96 -864 16
WIRE -1488 112 -1488 16
WIRE -1312 112 -1312 80
WIRE -704 144 -704 64
WIRE -560 144 -704 144
WIRE -480 144 -560 144
WIRE -704 224 -704 144
WIRE -1488 272 -1488 192
WIRE -1312 272 -1312 192
WIRE -1312 272 -1488 272
WIRE -1184 272 -1184 160
WIRE -1184 272 -1312 272
WIRE -992 272 -992 160
WIRE -992 272 -1184 272
WIRE -864 272 -864 176
WIRE -864 272 -992 272
WIRE -768 272 -832 272
WIRE -1488 288 -1488 272
WIRE -832 288 -832 272
WIRE -704 368 -704 320
WIRE -832 400 -832 368
FLAG -1488 288 0
FLAG -480 144 Vo
IOPIN -480 144 Out
FLAG -832 400 0
FLAG -704 368 0
FLAG -592 64 0
FLAG -560 224 0
SYMBOL voltage -1488 96 R0
WINDOW 0 37 41 Left 2
WINDOW 3 41 71 Left 2
WINDOW 123 0 0 Left 2
WINDOW 39 0 0 Left 2
SYMATTR InstName Vin
SYMATTR Value 10
SYMBOL ind -1136 32 R270
WINDOW 0 62 53 VTop 2
WINDOW 3 60 53 VBottom 2
SYMATTR InstName L1
SYMATTR Value 18m
SYMATTR SpiceLine Rser=0
SYMBOL diode -1168 160 R180
WINDOW 0 -70 40 Left 2
WINDOW 3 -95 13 Left 2
SYMATTR InstName D1
SYMATTR Value 1N4148
SYMBOL cap -1008 96 R0
WINDOW 0 45 23 Left 2
WINDOW 3 37 48 Left 2
SYMATTR InstName C1
SYMATTR Value 1µ
SYMBOL res -880 80 R0
WINDOW 0 51 41 Left 2
WINDOW 3 46 68 Left 2
SYMATTR InstName Rload
SYMATTR Value {R}
SYMBOL ZVP3306A -1312 48 R0
SYMATTR InstName U1
SYMBOL voltage -1312 96 R0
WINDOW 3 -138 255 Left 2
WINDOW 123 -138 283 Left 2
WINDOW 39 0 0 Left 2
SYMATTR Value PULSE(0 10 0 0 0 {D*T} {T})
SYMATTR InstName Vsw
SYMBOL ZVN3306A -704 16 M270
WINDOW 3 0 -15 Invisible 2
WINDOW 0 -13 -44 VTop 2
SYMATTR InstName M1
SYMBOL ZVN3306A -704 272 M270
WINDOW 3 0 -15 Invisible 2
WINDOW 0 -12 -44 VTop 2
SYMATTR InstName M2
SYMBOL voltage -832 272 R0
WINDOW 123 0 0 Left 2
WINDOW 39 0 0 Left 2
SYMATTR InstName V1
SYMATTR Value 3
SYMBOL voltage -592 -48 R0
WINDOW 123 0 0 Left 2
WINDOW 39 0 0 Left 2
SYMATTR InstName V2
SYMATTR Value 10
SYMBOL res -544 240 R180
WINDOW 0 36 76 Left 2
WINDOW 3 36 40 Left 2
SYMATTR InstName R1
SYMATTR Value {RL}
TEXT -1456 320 Left 2 !.param f={25k} T={1/f}
TEXT -1456 296 Left 2 ;.step param RL list 10k 6k 2k
TEXT -1032 -32 Left 2 !.tran 0 100m 99m 100u
TEXT -1096 344 Left 2 !.param R = 10k
TEXT -1096 312 Left 2 ;.step param D = .5335
TEXT -1456 376 Left 2 !.step param D list .08 .09 .1
TEXT -1096 368 Left 2 !.param RL = 10k
