Version 4
SHEET 1 1072 680
WIRE 464 -128 288 -128
WIRE 624 -128 464 -128
WIRE 464 -64 464 -128
WIRE 624 32 624 -128
WIRE 240 80 64 80
WIRE 320 80 240 80
WIRE 464 80 464 16
WIRE 464 80 384 80
WIRE 560 80 464 80
WIRE 880 128 800 128
WIRE 960 128 880 128
WIRE 624 176 624 128
WIRE 688 176 624 176
WIRE 64 192 64 80
WIRE 240 192 240 80
WIRE 464 192 464 80
WIRE 624 192 624 176
WIRE 688 192 688 176
WIRE 736 192 688 192
WIRE 800 192 800 128
WIRE 880 192 880 128
WIRE 64 352 64 272
WIRE 240 352 240 272
WIRE 240 352 64 352
WIRE 464 352 464 272
WIRE 624 352 624 272
WIRE 624 352 464 352
WIRE 880 352 880 272
WIRE 880 352 624 352
WIRE 64 384 64 352
WIRE 624 384 624 352
FLAG 64 384 0
FLAG 624 384 0
FLAG 960 128 Vout
IOPIN 960 128 Out
FLAG 288 -48 0
SYMBOL voltage 64 176 R0
WINDOW 3 24 152 Left 2
WINDOW 123 24 124 Left 2
WINDOW 39 0 0 Left 2
SYMATTR InstName Vin
SYMATTR Value SINE(0 6 1k)
SYMBOL res 224 176 R0
SYMATTR InstName R1
SYMATTR Value 600
SYMBOL res 448 176 R0
SYMATTR InstName R2
SYMATTR Value 100k
SYMBOL res 448 -80 R0
SYMATTR InstName R3
SYMATTR Value 160k
SYMBOL res 608 176 R0
SYMATTR InstName R4
SYMATTR Value 1.2k
SYMBOL res 864 176 R0
SYMATTR InstName R5
SYMATTR Value 100k
SYMBOL cap 384 64 R90
WINDOW 0 0 32 VBottom 2
WINDOW 3 37 30 VTop 2
SYMATTR InstName C1
SYMATTR Value 10µ
SYMBOL cap 800 176 R90
WINDOW 0 0 32 VBottom 2
WINDOW 3 32 32 VTop 2
SYMATTR InstName C2
SYMATTR Value 0.1µ
SYMBOL ZVN3306A 624 80 M270
WINDOW 3 50 -77 VBottom 2
WINDOW 0 22 -77 VBottom 2
SYMATTR InstName M1
SYMBOL voltage 288 -144 R0
WINDOW 123 0 0 Left 2
WINDOW 39 0 0 Left 2
SYMATTR InstName V1
SYMATTR Value 12
TEXT 94 376 Left 2 !.tran 0 100m 90m 1u
TEXT 72 56 Left 2 ;.ac dec 1000 1 100k
